/*--------------------------------*- C++ -*----------------------------------*\
| =========                 |                                                 |
| \\      /  F ield         | OpenFOAM: The Open Source CFD Toolbox           |
|  \\    /   O peration     | Version:  v1806                                 |
|   \\  /    A nd           | Web:      www.OpenFOAM.com                      |
|    \\/     M anipulation  |                                                 |
\*---------------------------------------------------------------------------*/
FoamFile
{
    version 2.0;
    format ascii;
    class volScalarField;
    object T;
}
// * * * * * * * * * * * * * * * * * * * * * * * * * * * * * * * * * * * * * //

dimensions [0 0 0 1 0 0 0];

internalField uniform 0; // starting initial values

boundaryField
{

    top
    {
        type fixedValue;
        value uniform 50;
    }

    bottom
    {
        type fixedValue;
        value uniform 50;
    }

    left
    {
        type fixedValue;
        value uniform 50;
    }

    // right
    // {
    //     type mixed;
    //     refValue uniform 0; // outside temperature
    //     valueFraction uniform 0.5;
    //     refGradient uniform 0;
    // }


    right
    {
        type robin;
        beta 0.001; // exchange coefficient
        value uniform 0.0; // ambient temperature
    }


    frontAndBack
    {
        type empty;
    }
}

// ************************************************************************* //
